** ============================================================
** Calculix input — Wing shell under aerodynamic traction
** Source: MappedTraction.xdmf
** Units : mm, MPa, N
** ============================================================

*NODE, NSET=ALL_NODES
1, 2.499403e+00, 3.000000e+00, -2.442489e-02
2, 2.000000e+00, 3.000000e+00, 1.104230e-16
3, 1.136868e-16, 4.547474e-16, -9.099764e-20
4, 9.988061e-01, 2.273737e-16, -4.884977e-02
5, 2.486758e+00, 3.000000e+00, -2.328895e-02
6, 2.474082e+00, 3.000000e+00, -2.260075e-02
7, 2.461389e+00, 3.000000e+00, -2.231096e-02
8, 2.448693e+00, 3.000000e+00, -2.233999e-02
9, 2.436000e+00, 3.000000e+00, -2.262996e-02
10, 2.423314e+00, 3.000000e+00, -2.313116e-02
11, 2.410636e+00, 3.000000e+00, -2.380435e-02
12, 2.397966e+00, 3.000000e+00, -2.461897e-02
13, 2.385304e+00, 3.000000e+00, -2.555110e-02
14, 2.372650e+00, 3.000000e+00, -2.658307e-02
15, 2.360003e+00, 3.000000e+00, -2.769584e-02
16, 2.347360e+00, 3.000000e+00, -2.886468e-02
17, 2.334721e+00, 3.000000e+00, -3.006636e-02
18, 2.322083e+00, 3.000000e+00, -3.127923e-02
19, 2.309444e+00, 3.000000e+00, -3.248256e-02
20, 2.296802e+00, 3.000000e+00, -3.365612e-02
** ... 3260 like lines cut

*ELEMENT, TYPE=S3, ELSET=WING
1, 1, 160, 5
2, 160, 239, 5
3, 160, 159, 239
4, 159, 240, 239
5, 159, 158, 240
6, 158, 241, 240
7, 158, 157, 241
8, 157, 242, 241
9, 157, 156, 242
10, 156, 243, 242
11, 156, 155, 243
12, 155, 244, 243
13, 155, 154, 244
14, 154, 245, 244
15, 154, 153, 245
16, 153, 246, 245
17, 153, 152, 246
18, 152, 247, 246
19, 152, 151, 247
20, 151, 248, 247
** ... 6380 like lines cut

*NSET, NSET=ROOT
3, 4, 83, 84, 85, 86, 87, 88, 89, 90, 91, 92, 93, 94, 95, 96
97, 98, 99, 100, 101, 102, 103, 104, 105, 106, 107, 108, 109, 110, 111, 112
113, 114, 115, 116, 117, 118, 119, 120, 121, 200, 201, 202, 203, 204, 205, 206
207, 208, 209, 210, 211, 212, 213, 214, 215, 216, 217, 218, 219, 220, 221, 222
223, 224, 225, 226, 227, 228, 229, 230, 231, 232, 233, 234, 235, 236, 237, 238

*MATERIAL, NAME=STEEL
*ELASTIC
210000000000.0, 0.3

*SHELL SECTION, ELSET=WING, MATERIAL=STEEL
0.01

*STEP
*STATIC

*BOUNDARY
ROOT, 1, 6, 0.0

** Aerodynamic nodal forces (traction * lumped area)
*CLOAD
1, 1, -4.379810e+00
1, 2, 9.887690e-01
1, 3, 6.786833e-01
2, 1, 1.939907e+01
2, 2, -1.298628e+01
2, 3, 8.568347e+00
3, 1, 4.564713e+01
3, 2, -3.172578e+01
3, 3, -1.413034e+01
4, 1, -8.022019e+00
4, 2, 3.239311e+00
4, 3, 4.782544e+00
5, 1, -3.523498e+00
5, 2, 8.424316e-01
5, 3, 3.262926e+00
6, 1, -1.616980e+00
6, 2, -4.868997e-01
6, 3, 1.240725e+01
7, 1, -1.281647e-01
7, 2, -1.808625e+00
** ... 9820 like lines cut

*NODE FILE
U, RF

*EL FILE
S, E

*NODE PRINT, NSET=ALL_NODES
U

*END STEP
