** ============================================================
** Calculix input - Wing shell under aerodynamic traction
** Source: MappedTraction.xdmf
** Element type : S6
** Thickness    : 1.0 mm
** Units        : SI (m, Pa, N)
** ============================================================

*NODE, NSET=ALL_NODES
1, 2.4994030000e+00, 3.0000000000e+00, -2.4424885000e-02
2, 2.0000000000e+00, 3.0000000000e+00, 1.1042300860e-16
3, 2.4867583914e+00, 3.0000000000e+00, -2.3288945450e-02
4, 2.4740815028e+00, 3.0000000000e+00, -2.2600749456e-02
5, 2.4613890293e+00, 3.0000000000e+00, -2.2310955065e-02
6, 2.4486931436e+00, 3.0000000000e+00, -2.2339989764e-02
7, 2.4360004461e+00, 3.0000000000e+00, -2.2629957447e-02
8, 2.4233142702e+00, 3.0000000000e+00, -2.3131158142e-02
9, 2.4106360185e+00, 3.0000000000e+00, -2.3804347253e-02
10, 2.3979660437e+00, 3.0000000000e+00, -2.4618972961e-02
11, 2.3853041556e+00, 3.0000000000e+00, -2.5551104145e-02
12, 2.3726500022e+00, 3.0000000000e+00, -2.6583067777e-02
13, 2.3600026865e+00, 3.0000000000e+00, -2.7695844384e-02
14, 2.3473604188e+00, 3.0000000000e+00, -2.8864677730e-02
15, 2.3347212267e+00, 3.0000000000e+00, -3.0066359871e-02
16, 2.3220831019e+00, 3.0000000000e+00, -3.1279228569e-02
17, 2.3094440668e+00, 3.0000000000e+00, -3.2482563315e-02
18, 2.2968022360e+00, 3.0000000000e+00, -3.3656124021e-02
19, 2.2841558565e+00, 3.0000000000e+00, -3.4779522714e-02
20, 2.2715032292e+00, 3.0000000000e+00, -3.5830071573e-02
** ... 12940 like lines cut

*ELEMENT, TYPE=S6, ELSET=WING
1, 1, 398, 3, 1920, 1921, 42
2, 398, 399, 3, 1922, 1923, 1921
3, 398, 397, 399, 1924, 1925, 1922
4, 397, 400, 399, 1926, 1927, 1925
5, 397, 396, 400, 1928, 1929, 1926
6, 396, 401, 400, 1930, 1931, 1929
7, 396, 395, 401, 1932, 1933, 1930
8, 395, 402, 401, 1934, 1935, 1933
9, 395, 394, 402, 1936, 1937, 1934
10, 394, 403, 402, 1938, 1939, 1937
11, 394, 393, 403, 1940, 1941, 1938
12, 393, 404, 403, 1942, 1943, 1941
13, 393, 392, 404, 1944, 1945, 1942
14, 392, 405, 404, 1946, 1947, 1945
15, 392, 391, 405, 1948, 1949, 1946
16, 391, 406, 405, 1950, 1951, 1949
17, 391, 390, 406, 1952, 1953, 1950
18, 390, 407, 406, 1954, 1955, 1953
19, 390, 389, 407, 1956, 1957, 1954
20, 389, 408, 407, 1958, 1959, 1957
** ... 6380 like lines cut

*NSET, NSET=ROOT
82, 83, 84, 85, 86, 87, 88, 89, 90, 91, 92, 93, 94, 95, 96, 97
98, 99, 100, 101, 102, 103, 104, 105, 106, 107, 108, 109, 110, 111, 112, 113
114, 115, 116, 117, 118, 119, 120, 121, 122, 123, 124, 125, 126, 127, 128, 129
130, 131, 132, 133, 134, 135, 136, 137, 138, 139, 140, 141, 142, 143, 144, 145
146, 147, 148, 149, 150, 151, 152, 153, 154, 155, 156, 157, 158, 159, 160, 161
162, 242, 243, 244, 245, 246, 247, 248, 249, 250, 251, 252, 253, 254, 255, 256
257, 258, 259, 260, 261, 262, 263, 264, 265, 266, 267, 268, 269, 270, 271, 272
273, 274, 275, 276, 277, 278, 279, 280, 281, 282, 283, 284, 285, 286, 287, 288
289, 290, 291, 292, 293, 294, 295, 296, 297, 298, 299, 300, 301, 302, 303, 304
305, 306, 307, 308, 309, 310, 311, 312, 313, 314, 315, 316, 317, 318, 319, 320

*MATERIAL, NAME=STEEL
*ELASTIC
2.100000e+11, 0.3

*SHELL SECTION, ELSET=WING, MATERIAL=STEEL
1.000000e-03

*STEP
*STATIC

** Clamped BC at wing root
*BOUNDARY
ROOT, 1, 6, 0.0

** Aerodynamic nodal forces (traction * lumped area) in N
*CLOAD
1, 1, 2.9099505689e+00
1, 2, 4.3737792930e+00
1, 3, 5.4599256294e+00
2, 1, 3.0791966418e+00
2, 2, -4.3378081205e+00
2, 3, -1.4134925501e-01
3, 1, 1.0241440009e+00
3, 2, -5.3127902501e+00
3, 3, 1.3550456142e+01
4, 1, -7.2539147123e-01
4, 2, -5.7215769420e+00
4, 3, 7.2908780818e+00
5, 1, 3.2961509074e-03
5, 2, -4.1476720249e+00
5, 3, 3.9609197944e+00
6, 1, -4.4677125177e-02
6, 2, -4.3961380109e+00
6, 3, 3.7824083725e+00
7, 1, -1.0263025148e-01
7, 2, -4.4383853529e+00
** ... 38860 like lines cut

*NODE FILE
U, RF

*EL FILE
S, E

*NODE PRINT, NSET=ALL_NODES
U

*END STEP
